/*--------------------------------*- C++ -*----------------------------------*\
| =========                 |                                                 |
| \\      /  F ield         | OpenFOAM: The Open Source CFD Toolbox           |
|  \\    /   O peration     | Version:  v2312                                 |
|   \\  /    A nd           | Website:  www.openfoam.com                      |
|    \\/     M anipulation  |                                                 |
\*---------------------------------------------------------------------------*/
FoamFile
{
    version     2.0;
    format      ascii;
    class       volScalarField;
    object      alphat;
}
// * * * * * * * * * * * * * * * * * * * * * * * * * * * * * * * * * * * * * //

dimensions      [0 2 -1 0 0 0 0];

internalField   uniform 0;

boundaryField
{

    floor
    {
        type            alphatJayatillekeWallFunction;
        Prt             1;
        value           $internalField;
    }

    ceiling
    {
        type            alphatJayatillekeWallFunction;
        Prt             1;
        value           $internalField;
    }
    #includeEtc "caseDicts/setConstraintTypes"
}


// ************************************************************************* //
